final year project/LSTM-TSAC-TEF/Ma Pai, Chap 10 & 11/ch10 (1)/Chapter 10 PMU/Problem_10_10/data_emwave_1_problem_10_10.m
% The radial chain of multiple-machine system to illustrate 
% electromechanical wave propagation 
% base MVA 100
% data_emwave_1_problem_10_10.m

% bus data format
% bus: 
% col1 number
% col2 voltage magnitude(pu)
% col3 voltage angle(degree)
% col4 p_gen(pu)
% col5 q_gen(pu),
% col6 p_load(pu)
% col7 q_load(pu)
% col8 G shunt(pu)
% col9 B shunt(pu)
% col10 bus_type
%       bus_type - 1, swing bus
%                - 2, generator bus (PV bus)
%                - 3, load bus (PQ bus)
% col11 q_gen_max(pu)
% col12 q_gen_min(pu)
%  the voltage on bus 2 is adjusted for zero Q at machine 1
bus = [ 1 1.0    0.0   1.5   0.0  0.0  0.0  0.0  0.0  1    9    -9;
        2 1.0    0.0   0.0   0.0  0.0  0.0  0.0  0.0  2    9    -9;
        3 1.0    0.0   0.0   0.0  0.0  0.0  0.0  0.0  2    9    -9;
        4 1.0    0.0   0.0   0.0  0.0  0.0  0.0  0.0  2    9    -9;
        5 1.0    0.0   0.0   0.0  0.0  0.0  0.0  0.0  2    9    -9;
        6 1.0    0.0   0.0   0.0  0.0  0.0  0.0  0.0  2    9    -9;
        7 1.0    0.0   0.0   0.0  0.0  0.0  0.0  0.0  2    9    -9;
        8 1.0    0.0   0.0   0.0  0.0  0.0  0.0  0.0  2    9    -9;
        9 1.0    0.0   0.0   0.0  0.0  0.0  0.0  0.0  2    9    -9;
       10 1.0    0.0   0.0   0.0  0.0  0.0  0.0  0.0  2    9    -9;
       11 1.0    0     0.0   0.0  1.5  0.0  0.0  0.0  2    9    -9;
       99 1.0    0     0.05  0.0  0.0  0.0  0.0  0.0  2    9    -9;
       ];

% line data format
% line: from bus, to bus, resistance(pu), reactance(pu),
%       line charging(pu), tap ratio, phase shifter angle
X = 0.2;

line = [1  2  0.0  X    0.  1. 0.;
        1  2  0.0  X    0.  1. 0.;
        2  3  0.0  X    0.  1. 0.;
        3  4  0.0  X    0.  1. 0.;
        4  5  0.0  X    0.  1. 0.;
        5  6  0.0  X    0.  1. 0.;
        6  7  0.0  X    0.  1. 0.;
        7  8  0.0  X    0.  1. 0.;
        8  9  0.0  X    0.  1. 0.;
        9 10  0.0  X    0.  1. 0.;
       10 11  0.0  X    0.  1. 0.;
        1 99  0.0  X    0.  1. 0.;];

% Machine data format
% machine:  1. machine number 
%           2. bus number 
%           3. base mva
%           4. leakage reactance x_l(pu)
%           5. resistance r_a(pu)
%           6. d-axis sychronous reactance x_d(pu)
%           7. d-axis transient reactance x'_d(pu)
%           8. d-axis subtransient reactance x"_d(pu)
%           9. d-axis open-circuit time constant T'_do(sec)
%          10. d-axis open-circuit subtransient time
%                constant T"_do(sec)
%          11. q-axis sychronous reactance x_q(pu)
%          12. q-axis transient reactance x'_q(pu)
%          13. q-axis subtransient reactance x"_q(pu)
%          14. q-axis open-circuit time constant T'_qo(sec)
%          15. q-axis open circuit subtransient time
%                constant T"_qo(sec)
%          16. inertia constant H(sec)
%          17. damping coefficient d_o(pu)
%          18. dampling coefficient d_1(pu)
%          19. bus number
%          20. S(1.0) - saturation factor
%          21. S(1.2) - saturation factor
% All machines classical model 
% note: machine 1 uses mac_sub model, machine 2 uses mac_em
%       model
mac_con = [
 1  1 200    0.00 0  0.     0.245  0   0    0     ...
                  0      0     0   0    0     ...
                  3.0    1.0   0   2    0     0; ...
 2  2 200    0.00 0  0.     0.245  0   0    0     ...
                  0      0     0   0    0     ...
                  3.0    1.0   0   2    0     0; ...
 3  3 200    0.00 0  0.     0.245  0   0    0     ...
                  0      0     0   0    0     ...
                  3.0    1.0   0   2    0     0; ...
 4  4 200    0.00 0  0.     0.245  0   0    0     ...
                  0      0     0   0    0     ...
                  3.0    1.0   0   2    0     0; ...
 5  5 200    0.00 0  0.     0.245  0   0    0     ...
                  0      0     0   0    0     ...
                  3.0    1.0   0   2    0     0; ...
 6  6 200    0.00 0  0.     0.245  0   0    0     ...
                  0      0     0   0    0     ...
                  3.0    1.0   0   2    0     0; ...
 7  7 200    0.00 0  0.     0.245  0   0    0     ...
                  0      0     0   0    0     ...
                  3.0    1.0   0   2    0     0; ...
 8  8 200    0.00 0  0.     0.245  0   0    0     ...
                  0      0     0   0    0     ...
                  3.0    1.0   0   2    0     0; ...
 9  9 200    0.00 0  0.     0.245  0   0    0     ...
                  0      0     0   0    0     ...
                  3.0    1.0   0   2    0     0; ...
10 10 200    0.00 0  0.     0.245  0   0    0     ...
                  0      0     0   0    0     ...
                  3.0    1.0   0   2    0     0; ...
11 11 200    0.00 0  0.     0.245  0   0    0     ...
                  0      0     0   0    0     ...
                  3.0    1.0   0   2    0     0; ...
99 99 200    0.00 0  0.     0.245  0   0    0     ...
                  0      0     0   0    0     ...
                  3.0    1.0   0   2    0     0; ...
                    ];
% Exciter data format
% exciter:  1. exciter type - 3 for ST3
%           2. machine number
%           3. input filter time constant T_R 
%           4. voltage regulator gain K_A
%           5. voltage regulator time constant T_A
%           6. voltage regulator time constant T_B
%           7. voltage regulator time constant T_C
%           8. maximum voltage regulator output V_Rmax
%           9. minimum voltage regulator output V_Rmin
%          10. maximum internal signal V_Imax
%          11. minimum internal signal V_Imin
%          12. first stage regulator gain K_J
%          13. potential circuit gain coefficient K_p
%          14. potential circuit phase angle theta_p
%          15. current circuit gain coefficient K_I
%          16. potential source reactance X_L
%          17. rectifier loading factor K_C
%          18. maximum field voltage E_fdmax 
%          19. inner loop feedback constant K_G
%          20. maximum inner loop voltage feedback V_Gmax
% exc_con = [
% 3 1 0 7.04 0.4 6.67 1.0 7.57 0 0.2 -0.2 200 4.365 20 ...
% 4.83 0.091 1.096 6.53 1 6.53];
% governor data
% 1. governor type = 1
% 2. machine number
% 3. speed set point , normally equal to 1
% 4. gain ( inverse of droop)
% 5. max power pu on gen base
% 6. servo time const. s
% 7. governor or HP time const s
% 8. transient gain time const s
% 9. T4 set to make T4/T5 = frac of HP
%10. T5 reheater time const
% tg_con=[...
%         1 1  1.0  25.0 1.0  0.1  0.4  0.0  1.25  5.0];
% 
% ibus_con=[0 1]';

%Switching file defines the simulation control
% row 1 col1  simulation start time (s) (cols 2 to 6 zeros)
%       col7  initial time step (s)
% row 2 col1  fault application time (s)
%       col2  bus number at which fault is applied
%       col3  bus number defining far end of faulted line
%       col4  zero sequence impedance in pu on system base
%       col5  negative sequence impedance in pu on system base
%       col6  type of fault  - 0 three phase
%                            - 1 line to ground
%                            - 2 line-to-line to ground
%                            - 3 line-to-line
%                            - 4 loss of line with no fault
%                            - 5 loss of load at bus
%       col7  time step for fault period (s)
% row 3 col1  near end fault clearing time (s) (cols 2 to 6 zeros)
%       col7  time step for second part of fault (s)
% row 4 col1  far end fault clearing time (s) (cols 2 to 6 zeros)
%       col7  time step for fault cleared simulation (s)
% row 5 col1  time to change step length (s)
%       col7  time step (s)
%
%
%
% row n col1 finishing time (s)  (n indicates that intermediate rows may be inserted)

sw_con = [...
0    0    0    0    0    0    0.01;%sets intitial time step
0.1  1   99    0    0    4    0.005; % trip line without a fault at bus 1, on line 1-99
% 0.11 0    0    0    0    0    0.005; %clear fault at bus 3
% 0.115 0   0    0    0    0    0.005; %clear remote end
0.50 0    0    0    0    0    0.01; % increase time step 
1.0  0    0    0    0    0    0.01; % increase time step
%5.0  0    0    0    0    0    0;
                                 ]; % end simulation

% commands for plotting
% figure, plot(t,mac_spd(1:11,:))
% figure, plot(t,mac_spd(1:11,:),[0 1],[0.9999 0.9999])
% xlabel('time (sec)'), ylabel('Frequency(pu)')




